tests/D001-200081531_dockout.pdbqt
 OpenBabel03032517443D

 30 31  0  0  0  0  0  0  0  0999 V2000
   34.9800   31.4170   30.1850 C   0  0  0  0  0  2  0  0  0  0  0  0
   35.1640   30.7210   28.8680 C   0  0  0  0  0  0  0  0  0  0  0  0
   34.6970   29.4400   28.8350 N   0  0  0  0  0  0  0  0  0  0  0  0
   35.7420   31.2330   27.9390 O   0  0  0  0  0  0  0  0  0  0  0  0
   34.0310   29.1740   29.5460 H   0  0  0  0  0  0  0  0  0  0  0  0
   35.0590   28.4630   27.9030 C   0  0  0  0  0  0  0  0  0  0  0  0
   35.1900   28.8620   26.5780 C   0  0  0  0  0  3  0  0  0  0  0  0
   35.0890   27.1200   28.2200 C   0  0  0  0  0  3  0  0  0  0  0  0
   35.3960   27.9340   25.5900 C   0  0  0  0  0  3  0  0  0  0  0  0
   35.2530   26.1620   27.2200 C   0  0  0  0  0  0  0  0  0  0  0  0
   35.4320   26.5730   25.8910 C   0  0  0  0  0  0  0  0  0  0  0  0
   35.1890   24.7690   27.6530 C   0  0  0  0  0  0  0  0  0  0  0  0
   35.1930   23.8020   26.9410 O   0  0  0  0  0  0  0  0  0  0  0  0
   35.1260   24.6240   29.0120 O   0  0  0  0  0  1  0  0  0  0  0  0
   35.6240   25.7550   24.8460 O   0  0  0  0  0  0  0  0  0  0  0  0
   35.6990   24.8500   25.1580 H   0  0  0  0  0  0  0  0  0  0  0  0
   33.2930   31.1900   30.7930 S   0  0  0  0  0  0  0  0  0  0  0  0
   33.2730   31.7160   32.1220 O   0  0  0  0  0  0  0  0  0  0  0  0
   32.4080   31.6820   29.7800 O   0  0  0  0  0  0  0  0  0  0  0  0
   33.0620   29.4270   30.9550 C   0  0  0  0  0  0  0  0  0  0  0  0
   31.8960   28.8990   30.4320 C   0  0  0  0  0  3  0  0  0  0  0  0
   33.9460   28.5720   31.6040 C   0  0  0  0  0  0  0  0  0  0  0  0
   31.6190   27.5500   30.5240 C   0  0  0  0  0  3  0  0  0  0  0  0
   33.6870   27.2200   31.6880 C   0  0  0  0  0  3  0  0  0  0  0  0
   32.5240   26.7050   31.1370 C   0  0  0  0  0  0  0  0  0  0  0  0
   35.3720   29.1740   32.3660 Cl  0  0  0  0  0  0  0  0  0  0  0  0
   32.2610   25.2290   31.1930 C   0  0  0  0  0  0  0  0  0  0  0  0
   31.8730   24.7390   30.0070 F   0  0  0  0  0  0  0  0  0  0  0  0
   31.2980   24.9400   32.0680 F   0  0  0  0  0  0  0  0  0  0  0  0
   33.3560   24.5520   31.5530 F   0  0  0  0  0  0  0  0  0  0  0  0
  1 17  1  0  0  0  0
  2  1  1  0  0  0  0
  3  2  1  0  0  0  0
  3  5  1  0  0  0  0
  4  2  2  0  0  0  0
  6  8  1  0  0  0  0
  6  3  1  0  0  0  0
  7  6  2  0  0  0  0
  9 11  2  0  0  0  0
  9  7  1  0  0  0  0
 10 12  1  0  0  0  0
 10  8  2  0  0  0  0
 11 10  1  0  0  0  0
 12 14  1  0  0  0  0
 13 12  2  0  0  0  0
 15 16  1  0  0  0  0
 15 11  1  0  0  0  0
 17 20  1  0  0  0  0
 17 18  2  0  0  0  0
 19 17  2  0  0  0  0
 20 22  1  0  0  0  0
 21 23  1  0  0  0  0
 21 20  2  0  0  0  0
 22 24  2  0  0  0  0
 22 26  1  0  0  0  0
 23 25  2  0  0  0  0
 25 27  1  0  0  0  0
 25 24  1  0  0  0  0
 27 30  1  0  0  0  0
 27 29  1  0  0  0  0
 28 27  1  0  0  0  0
M  END
>  <Pose>
1

>  <Score>
-2.904

$$$$
