ZMR.pdb
 OpenBabel03252517563D

 32 32  0  0  1  0  0  0  0  0999 V2000
   33.8080   30.2470   29.5490 C   0  0  1  0  0  3  0  0  0  0  0  0
   33.0120   29.3680   30.4050 C   0  0  0  0  0  2  0  0  0  0  0  0
   32.8850   27.9750   29.9560 C   0  0  1  0  0  3  0  0  0  0  0  0
   33.6390   27.6210   28.7100 C   0  0  2  0  0  3  0  0  0  0  0  0
   33.3550   28.6260   27.5910 C   0  0  1  0  0  3  0  0  0  0  0  0
   33.6230   30.0350   28.1000 O   0  0  0  0  0  0  0  0  0  0  0  0
   33.4020   27.0290   31.0470 N   0  0  0  0  0  0  0  0  0  0  0  0
   32.6050   25.9320   31.5700 C   0  0  0  0  0  0  0  0  0  0  0  0
   33.1110   25.1770   32.4520 N   0  0  0  0  0  0  0  0  0  0  0  0
   31.4220   25.7560   31.1580 N   0  0  0  0  0  4  0  0  0  0  0  0
   34.3320   27.1730   31.4150 H   0  0  0  0  0  0  0  0  0  0  0  0
   32.5700   24.4140   32.8340 H   0  0  0  0  0  0  0  0  0  0  0  0
   34.0540   25.3380   32.7740 H   0  0  0  0  0  0  0  0  0  0  0  0
   30.8660   24.9980   31.5280 H   0  0  0  0  0  0  0  0  0  0  0  0
   31.0340   26.3730   30.4590 H   0  0  0  0  0  0  0  0  0  0  0  0
   33.1550   26.2900   28.2260 N   0  0  0  0  0  0  0  0  0  0  0  0
   34.0100   25.1220   28.2550 C   0  0  0  0  0  0  0  0  0  0  0  0
   33.6220   24.0530   27.8770 O   0  0  0  0  0  0  0  0  0  0  0  0
   35.4100   25.3110   28.7920 C   0  0  0  0  0  1  0  0  0  0  0  0
   32.2140   26.2060   27.8710 H   0  0  0  0  0  0  0  0  0  0  0  0
   33.4980   31.7520   29.7530 C   0  0  0  0  0  0  0  0  0  0  0  0
   33.9120   32.6270   28.9550 O   0  0  0  0  0  0  0  0  0  0  0  0
   32.7930   32.1050   30.7420 O   0  0  0  0  0  1  0  0  0  0  0  0
   34.1760   28.4200   26.4060 C   0  0  2  0  0  3  0  0  0  0  0  0
   33.8640   27.1560   25.7930 O   0  0  0  0  0  0  0  0  0  0  0  0
   34.6750   26.6690   25.6310 H   0  0  0  0  0  0  0  0  0  0  0  0
   35.6540   28.4060   26.8930 C   0  0  2  0  0  3  0  0  0  0  0  0
   36.1190   29.7200   26.9530 O   0  0  0  0  0  0  0  0  0  0  0  0
   35.9170   30.1680   26.1290 H   0  0  0  0  0  0  0  0  0  0  0  0
   36.5620   27.5530   26.0030 C   0  0  0  0  0  2  0  0  0  0  0  0
   36.2330   27.7660   24.6530 O   0  0  0  0  0  0  0  0  0  0  0  0
   35.3080   28.0140   24.5840 H   0  0  0  0  0  0  0  0  0  0  0  0
  1 21  1  6  0  0  0
  1  2  1  0  0  0  0
  3  2  1  0  0  0  0
  3  7  1  1  0  0  0
  4 16  1  6  0  0  0
  4  3  1  0  0  0  0
  5 24  1  6  0  0  0
  5  6  1  0  0  0  0
  5  4  1  0  0  0  0
  6  1  1  0  0  0  0
  7 11  1  0  0  0  0
  7  8  1  0  0  0  0
  8  9  1  0  0  0  0
  9 13  1  0  0  0  0
  9 12  1  0  0  0  0
 10 14  1  0  0  0  0
 10  8  2  0  0  0  0
 15 10  1  0  0  0  0
 16 17  1  0  0  0  0
 17 19  1  0  0  0  0
 18 17  2  0  0  0  0
 20 16  1  0  0  0  0
 21 23  1  0  0  0  0
 22 21  2  0  0  0  0
 24 25  1  1  0  0  0
 24 27  1  0  0  0  0
 26 25  1  0  0  0  0
 27 30  1  6  0  0  0
 27 28  1  0  0  0  0
 29 28  1  0  0  0  0
 31 30  1  0  0  0  0
 32 31  1  0  0  0  0
M  END
>  <Pose>
1

>  <Score>
-7.412

$$$$
ZMR.pdb
 OpenBabel03252517563D

 32 32  0  0  1  0  0  0  0  0999 V2000
   33.7710   26.7320   32.0950 C   0  0  1  0  0  3  0  0  0  0  0  0
   33.5880   25.4530   31.4080 C   0  0  0  0  0  2  0  0  0  0  0  0
   33.5970   25.5060   29.9390 C   0  0  1  0  0  3  0  0  0  0  0  0
   33.8500   26.8550   29.3370 C   0  0  2  0  0  3  0  0  0  0  0  0
   32.9380   27.9160   29.9570 C   0  0  1  0  0  3  0  0  0  0  0  0
   33.0760   27.8750   31.4720 O   0  0  0  0  0  0  0  0  0  0  0  0
   34.6940   24.5850   29.3930 N   0  0  0  0  0  0  0  0  0  0  0  0
   34.3960   23.3450   28.6960 C   0  0  0  0  0  0  0  0  0  0  0  0
   35.3560   22.6490   28.2510 N   0  0  0  0  0  4  0  0  0  0  0  0
   33.1960   22.9670   28.5610 N   0  0  0  0  0  0  0  0  0  0  0  0
   35.6600   24.8500   29.5220 H   0  0  0  0  0  0  0  0  0  0  0  0
   35.1690   21.7800   27.7710 H   0  0  0  0  0  0  0  0  0  0  0  0
   36.3070   22.9630   28.3760 H   0  0  0  0  0  0  0  0  0  0  0  0
   32.9900   22.1010   28.0840 H   0  0  0  0  0  0  0  0  0  0  0  0
   32.4440   23.5320   28.9290 H   0  0  0  0  0  0  0  0  0  0  0  0
   33.5130   26.7950   27.8810 N   0  0  0  0  0  0  0  0  0  0  0  0
   34.5440   26.8380   26.8660 C   0  0  0  0  0  0  0  0  0  0  0  0
   34.2770   26.7810   25.6990 O   0  0  0  0  0  0  0  0  0  0  0  0
   35.9730   26.9510   27.3450 C   0  0  0  0  0  1  0  0  0  0  0  0
   32.5460   26.7230   27.6000 H   0  0  0  0  0  0  0  0  0  0  0  0
   33.2520   26.7260   33.5560 C   0  0  0  0  0  0  0  0  0  0  0  0
   32.0350   26.5920   33.8250 O   0  0  0  0  0  0  0  0  0  0  0  0
   34.0830   26.8400   34.5030 O   0  0  0  0  0  1  0  0  0  0  0  0
   33.2440   29.2710   29.5200 C   0  0  2  0  0  3  0  0  0  0  0  0
   34.6450   29.3940   29.2160 O   0  0  0  0  0  0  0  0  0  0  0  0
   34.7530   29.8650   28.3860 H   0  0  0  0  0  0  0  0  0  0  0  0
   32.8900   30.2060   30.7130 C   0  0  2  0  0  3  0  0  0  0  0  0
   31.5430   30.0330   31.0330 O   0  0  0  0  0  0  0  0  0  0  0  0
   31.1800   30.8650   31.3450 H   0  0  0  0  0  0  0  0  0  0  0  0
   33.1890   31.6780   30.4180 C   0  0  0  0  0  2  0  0  0  0  0  0
   33.4320   31.8440   29.0430 O   0  0  0  0  0  0  0  0  0  0  0  0
   33.0340   32.6640   28.7440 H   0  0  0  0  0  0  0  0  0  0  0  0
  1 21  1  1  0  0  0
  2  1  1  0  0  0  0
  3  7  1  6  0  0  0
  3  2  1  0  0  0  0
  4 16  1  6  0  0  0
  4  3  1  0  0  0  0
  4  5  1  0  0  0  0
  5 24  1  6  0  0  0
  5  6  1  0  0  0  0
  6  1  1  0  0  0  0
  7 11  1  0  0  0  0
  8  7  1  0  0  0  0
  9 13  1  0  0  0  0
  9  8  2  0  0  0  0
 10  8  1  0  0  0  0
 10 15  1  0  0  0  0
 12  9  1  0  0  0  0
 14 10  1  0  0  0  0
 17 19  1  0  0  0  0
 17 16  1  0  0  0  0
 18 17  2  0  0  0  0
 20 16  1  0  0  0  0
 21 22  2  0  0  0  0
 21 23  1  0  0  0  0
 24 25  1  1  0  0  0
 24 27  1  0  0  0  0
 26 25  1  0  0  0  0
 27 30  1  6  0  0  0
 27 28  1  0  0  0  0
 28 29  1  0  0  0  0
 31 30  1  0  0  0  0
 32 31  1  0  0  0  0
M  END
>  <Pose>
2

>  <Score>
-6.814

$$$$
ZMR.pdb
 OpenBabel03252517563D

 32 32  0  0  1  0  0  0  0  0999 V2000
   34.3520   28.0270   27.3350 C   0  0  1  0  0  3  0  0  0  0  0  0
   33.7120   29.1910   27.9470 C   0  0  0  0  0  2  0  0  0  0  0  0
   33.2840   29.0290   29.3430 C   0  0  1  0  0  3  0  0  0  0  0  0
   33.6120   27.7110   29.9770 C   0  0  2  0  0  3  0  0  0  0  0  0
   33.1670   26.5470   29.0880 C   0  0  1  0  0  3  0  0  0  0  0  0
   33.7490   26.7280   27.6930 O   0  0  0  0  0  0  0  0  0  0  0  0
   33.9500   30.0970   30.2180 N   0  0  0  0  0  0  0  0  0  0  0  0
   33.1850   31.0430   31.0130 C   0  0  0  0  0  0  0  0  0  0  0  0
   33.8070   31.8800   31.7310 N   0  0  0  0  0  0  0  0  0  0  0  0
   31.9210   31.0340   30.9650 N   0  0  0  0  0  4  0  0  0  0  0  0
   34.9590   30.1450   30.2430 H   0  0  0  0  0  0  0  0  0  0  0  0
   33.2940   32.5510   32.2850 H   0  0  0  0  0  0  0  0  0  0  0  0
   34.8170   31.8770   31.7500 H   0  0  0  0  0  0  0  0  0  0  0  0
   31.3900   31.6970   31.5120 H   0  0  0  0  0  0  0  0  0  0  0  0
   31.4430   30.3630   30.3810 H   0  0  0  0  0  0  0  0  0  0  0  0
   32.8420   27.5950   31.2550 N   0  0  0  0  0  0  0  0  0  0  0  0
   33.5130   27.5470   32.5360 C   0  0  0  0  0  0  0  0  0  0  0  0
   32.8980   27.4640   33.5620 O   0  0  0  0  0  0  0  0  0  0  0  0
   35.0220   27.6150   32.5230 C   0  0  0  0  0  1  0  0  0  0  0  0
   31.8340   27.5480   31.2220 H   0  0  0  0  0  0  0  0  0  0  0  0
   34.3120   28.0460   25.7860 C   0  0  0  0  0  0  0  0  0  0  0  0
   34.6210   29.0670   25.1280 O   0  0  0  0  0  0  0  0  0  0  0  0
   33.9760   26.9940   25.1670 O   0  0  0  0  0  1  0  0  0  0  0  0
   33.5960   25.2450   29.5810 C   0  0  2  0  0  3  0  0  0  0  0  0
   34.9100   25.3360   30.1600 O   0  0  0  0  0  0  0  0  0  0  0  0
   35.5510   24.9400   29.5640 H   0  0  0  0  0  0  0  0  0  0  0  0
   33.6410   24.3010   28.3440 C   0  0  2  0  0  3  0  0  0  0  0  0
   32.9480   23.1290   28.6500 O   0  0  0  0  0  0  0  0  0  0  0  0
   32.2960   22.9560   27.9680 H   0  0  0  0  0  0  0  0  0  0  0  0
   35.0690   23.9820   27.8970 C   0  0  0  0  0  2  0  0  0  0  0  0
   35.3540   24.6670   26.7030 O   0  0  0  0  0  0  0  0  0  0  0  0
   34.9340   25.5300   26.7220 H   0  0  0  0  0  0  0  0  0  0  0  0
  1 21  1  6  0  0  0
  1  6  1  0  0  0  0
  1  2  1  0  0  0  0
  2  3  1  0  0  0  0
  3  4  1  0  0  0  0
  3  7  1  1  0  0  0
  4 16  1  1  0  0  0
  5 24  1  1  0  0  0
  5  4  1  0  0  0  0
  6  5  1  0  0  0  0
  7 11  1  0  0  0  0
  7  8  1  0  0  0  0
  8  9  1  0  0  0  0
  9 13  1  0  0  0  0
  9 12  1  0  0  0  0
 10  8  2  0  0  0  0
 10 14  1  0  0  0  0
 15 10  1  0  0  0  0
 16 17  1  0  0  0  0
 17 18  2  0  0  0  0
 19 17  1  0  0  0  0
 20 16  1  0  0  0  0
 22 21  2  0  0  0  0
 23 21  1  0  0  0  0
 24 25  1  6  0  0  0
 26 25  1  0  0  0  0
 27 30  1  1  0  0  0
 27 28  1  0  0  0  0
 27 24  1  0  0  0  0
 29 28  1  0  0  0  0
 31 32  1  0  0  0  0
 31 30  1  0  0  0  0
M  END
>  <Pose>
3

>  <Score>
-6.746

$$$$
ZMR.pdb
 OpenBabel03252517563D

 32 32  0  0  1  0  0  0  0  0999 V2000
   32.8490   26.6210   32.1700 C   0  0  1  0  0  3  0  0  0  0  0  0
   33.8010   27.7170   32.3430 C   0  0  0  0  0  2  0  0  0  0  0  0
   34.5170   28.1450   31.1320 C   0  0  1  0  0  3  0  0  0  0  0  0
   34.1350   27.4400   29.8670 C   0  0  2  0  0  3  0  0  0  0  0  0
   34.1540   25.9210   30.0540 C   0  0  1  0  0  3  0  0  0  0  0  0
   33.2950   25.5510   31.2550 O   0  0  0  0  0  0  0  0  0  0  0  0
   34.2660   29.6360   30.8800 N   0  0  0  0  0  0  0  0  0  0  0  0
   35.3290   30.6250   30.9270 C   0  0  0  0  0  0  0  0  0  0  0  0
   35.0480   31.8350   30.6820 N   0  0  0  0  0  4  0  0  0  0  0  0
   36.5070   30.2750   31.2280 N   0  0  0  0  0  0  0  0  0  0  0  0
   33.3260   29.9420   30.6730 H   0  0  0  0  0  0  0  0  0  0  0  0
   35.7720   32.5400   30.7170 H   0  0  0  0  0  0  0  0  0  0  0  0
   34.1010   32.0970   30.4510 H   0  0  0  0  0  0  0  0  0  0  0  0
   37.2440   30.9640   31.2680 H   0  0  0  0  0  0  0  0  0  0  0  0
   36.7100   29.3060   31.4280 H   0  0  0  0  0  0  0  0  0  0  0  0
   35.1560   27.7570   28.8200 N   0  0  0  0  0  0  0  0  0  0  0  0
   34.7970   28.4550   27.6040 C   0  0  0  0  0  0  0  0  0  0  0  0
   35.6150   28.7180   26.7690 O   0  0  0  0  0  0  0  0  0  0  0  0
   33.3460   28.8410   27.4380 C   0  0  0  0  0  1  0  0  0  0  0  0
   36.1160   27.4790   28.9660 H   0  0  0  0  0  0  0  0  0  0  0  0
   32.5210   25.8760   33.4880 C   0  0  0  0  0  0  0  0  0  0  0  0
   31.7920   26.3850   34.3730 O   0  0  0  0  0  1  0  0  0  0  0  0
   32.9870   24.7140   33.6690 O   0  0  0  0  0  0  0  0  0  0  0  0
   33.6440   25.1890   28.9030 C   0  0  2  0  0  3  0  0  0  0  0  0
   32.6590   24.2260   29.3170 O   0  0  0  0  0  0  0  0  0  0  0  0
   32.1030   23.9940   28.5700 H   0  0  0  0  0  0  0  0  0  0  0  0
   34.8630   24.4460   28.2820 C   0  0  2  0  0  3  0  0  0  0  0  0
   35.0410   24.8930   26.9720 O   0  0  0  0  0  0  0  0  0  0  0  0
   35.1330   24.1380   26.3860 H   0  0  0  0  0  0  0  0  0  0  0  0
   34.7060   22.9230   28.3150 C   0  0  0  0  0  2  0  0  0  0  0  0
   34.7550   22.4730   29.6450 O   0  0  0  0  0  0  0  0  0  0  0  0
   34.1610   23.0000   30.1840 H   0  0  0  0  0  0  0  0  0  0  0  0
  1  2  1  0  0  0  0
  1 21  1  1  0  0  0
  3  7  1  6  0  0  0
  3  2  1  0  0  0  0
  4 16  1  6  0  0  0
  4  5  1  0  0  0  0
  4  3  1  0  0  0  0
  5 24  1  6  0  0  0
  5  6  1  0  0  0  0
  6  1  1  0  0  0  0
  7  8  1  0  0  0  0
  8 10  1  0  0  0  0
  9 12  1  0  0  0  0
  9  8  2  0  0  0  0
 10 14  1  0  0  0  0
 10 15  1  0  0  0  0
 11  7  1  0  0  0  0
 13  9  1  0  0  0  0
 16 20  1  0  0  0  0
 17 16  1  0  0  0  0
 18 17  2  0  0  0  0
 19 17  1  0  0  0  0
 21 23  2  0  0  0  0
 21 22  1  0  0  0  0
 24 25  1  1  0  0  0
 26 25  1  0  0  0  0
 27 30  1  6  0  0  0
 27 24  1  0  0  0  0
 28 27  1  0  0  0  0
 29 28  1  0  0  0  0
 30 31  1  0  0  0  0
 31 32  1  0  0  0  0
M  END
>  <Pose>
4

>  <Score>
-6.291

$$$$
ZMR.pdb
 OpenBabel03252517563D

 32 32  0  0  1  0  0  0  0  0999 V2000
   34.5600   30.3000   29.8450 C   0  0  1  0  0  3  0  0  0  0  0  0
   33.5850   29.3420   30.3650 C   0  0  0  0  0  2  0  0  0  0  0  0
   33.6010   28.0090   29.7480 C   0  0  1  0  0  3  0  0  0  0  0  0
   34.6560   27.7860   28.7060 C   0  0  2  0  0  3  0  0  0  0  0  0
   34.6530   28.9120   27.6700 C   0  0  1  0  0  3  0  0  0  0  0  0
   34.7570   30.2530   28.3830 O   0  0  0  0  0  0  0  0  0  0  0  0
   33.8360   26.9410   30.8230 N   0  0  0  0  0  0  0  0  0  0  0  0
   32.7720   26.0840   31.3170 C   0  0  0  0  0  0  0  0  0  0  0  0
   33.0480   25.2080   32.1880 N   0  0  0  0  0  0  0  0  0  0  0  0
   31.5900   26.2330   30.8910 N   0  0  0  0  0  4  0  0  0  0  0  0
   34.7660   26.8300   31.2030 H   0  0  0  0  0  0  0  0  0  0  0  0
   32.3210   24.6070   32.5500 H   0  0  0  0  0  0  0  0  0  0  0  0
   33.9970   25.1090   32.5220 H   0  0  0  0  0  0  0  0  0  0  0  0
   30.8490   25.6410   31.2400 H   0  0  0  0  0  0  0  0  0  0  0  0
   31.3870   26.9420   30.2010 H   0  0  0  0  0  0  0  0  0  0  0  0
   34.3360   26.5230   27.9700 N   0  0  0  0  0  0  0  0  0  0  0  0
   35.3460   25.5150   27.7310 C   0  0  0  0  0  0  0  0  0  0  0  0
   35.0900   24.4980   27.1500 O   0  0  0  0  0  0  0  0  0  0  0  0
   36.7350   25.7980   28.2520 C   0  0  0  0  0  1  0  0  0  0  0  0
   33.3960   26.3720   27.6340 H   0  0  0  0  0  0  0  0  0  0  0  0
   34.1830   31.7770   30.1270 C   0  0  0  0  0  0  0  0  0  0  0  0
   34.8590   32.7310   29.6730 O   0  0  0  0  0  0  0  0  0  0  0  0
   33.1540   32.0270   30.8180 O   0  0  0  0  0  1  0  0  0  0  0  0
   35.7550   28.8290   26.7210 C   0  0  2  0  0  3  0  0  0  0  0  0
   36.5750   30.0080   26.8010 O   0  0  0  0  0  0  0  0  0  0  0  0
   36.9510   30.1960   25.9370 H   0  0  0  0  0  0  0  0  0  0  0  0
   35.1090   28.7430   25.3070 C   0  0  2  0  0  3  0  0  0  0  0  0
   34.7490   27.4180   25.0580 O   0  0  0  0  0  0  0  0  0  0  0  0
   33.8180   27.3780   24.8300 H   0  0  0  0  0  0  0  0  0  0  0  0
   36.0320   29.2670   24.2040 C   0  0  0  0  0  2  0  0  0  0  0  0
   35.7100   30.6040   23.9140 O   0  0  0  0  0  0  0  0  0  0  0  0
   36.5140   31.0940   23.7290 H   0  0  0  0  0  0  0  0  0  0  0  0
  1 21  1  6  0  0  0
  1  2  1  0  0  0  0
  3  2  1  0  0  0  0
  3  7  1  1  0  0  0
  4 16  1  6  0  0  0
  4  3  1  0  0  0  0
  5 24  1  6  0  0  0
  5  6  1  0  0  0  0
  5  4  1  0  0  0  0
  6  1  1  0  0  0  0
  7 11  1  0  0  0  0
  7  8  1  0  0  0  0
  8  9  1  0  0  0  0
  9 13  1  0  0  0  0
  9 12  1  0  0  0  0
 10 14  1  0  0  0  0
 10  8  2  0  0  0  0
 15 10  1  0  0  0  0
 17 16  1  0  0  0  0
 17 19  1  0  0  0  0
 18 17  2  0  0  0  0
 20 16  1  0  0  0  0
 21 23  1  0  0  0  0
 22 21  2  0  0  0  0
 24 25  1  6  0  0  0
 26 25  1  0  0  0  0
 27 30  1  6  0  0  0
 27 24  1  0  0  0  0
 28 27  1  0  0  0  0
 29 28  1  0  0  0  0
 31 30  1  0  0  0  0
 32 31  1  0  0  0  0
M  END
>  <Pose>
5

>  <Score>
-6.217

$$$$
ZMR.pdb
 OpenBabel03252517563D

 32 32  0  0  1  0  0  0  0  0999 V2000
   35.0940   25.3910   27.4950 C   0  0  1  0  0  3  0  0  0  0  0  0
   34.6530   24.9290   28.8110 C   0  0  0  0  0  2  0  0  0  0  0  0
   34.0780   25.9540   29.6930 C   0  0  1  0  0  3  0  0  0  0  0  0
   33.9630   27.3280   29.1060 C   0  0  2  0  0  3  0  0  0  0  0  0
   35.2870   27.7710   28.4780 C   0  0  1  0  0  3  0  0  0  0  0  0
   35.7550   26.7120   27.4910 O   0  0  0  0  0  0  0  0  0  0  0  0
   32.6560   25.5490   30.1020 N   0  0  0  0  0  0  0  0  0  0  0  0
   32.2630   25.3790   31.4910 C   0  0  0  0  0  0  0  0  0  0  0  0
   31.0640   25.0680   31.7520 N   0  0  0  0  0  4  0  0  0  0  0  0
   33.1170   25.5240   32.4130 N   0  0  0  0  0  0  0  0  0  0  0  0
   31.9680   25.3940   29.3790 H   0  0  0  0  0  0  0  0  0  0  0  0
   30.7730   24.9380   32.7100 H   0  0  0  0  0  0  0  0  0  0  0  0
   30.3980   24.9490   31.0010 H   0  0  0  0  0  0  0  0  0  0  0  0
   32.8450   25.3980   33.3770 H   0  0  0  0  0  0  0  0  0  0  0  0
   34.0710   25.7650   32.1840 H   0  0  0  0  0  0  0  0  0  0  0  0
   33.6680   28.2920   30.2120 N   0  0  0  0  0  0  0  0  0  0  0  0
   32.3530   28.8730   30.3740 C   0  0  0  0  0  0  0  0  0  0  0  0
   32.1120   29.6390   31.2640 O   0  0  0  0  0  0  0  0  0  0  0  0
   31.2960   28.4660   29.3740 C   0  0  0  0  0  1  0  0  0  0  0  0
   34.4020   28.5420   30.8590 H   0  0  0  0  0  0  0  0  0  0  0  0
   36.1280   24.4500   26.8260 C   0  0  0  0  0  0  0  0  0  0  0  0
   37.2120   24.8790   26.3640 O   0  0  0  0  0  0  0  0  0  0  0  0
   35.8790   23.2120   26.7610 O   0  0  0  0  0  1  0  0  0  0  0  0
   35.1930   29.0350   27.7600 C   0  0  2  0  0  3  0  0  0  0  0  0
   33.9080   29.1550   27.1230 O   0  0  0  0  0  0  0  0  0  0  0  0
   33.2150   29.0770   27.7830 H   0  0  0  0  0  0  0  0  0  0  0  0
   36.3070   29.0050   26.6740 C   0  0  2  0  0  3  0  0  0  0  0  0
   37.1910   30.0580   26.9100 O   0  0  0  0  0  0  0  0  0  0  0  0
   36.7040   30.8850   26.9370 H   0  0  0  0  0  0  0  0  0  0  0  0
   35.7470   29.0800   25.2510 C   0  0  0  0  0  2  0  0  0  0  0  0
   35.2640   27.8170   24.8670 O   0  0  0  0  0  0  0  0  0  0  0  0
   34.5180   27.9270   24.2740 H   0  0  0  0  0  0  0  0  0  0  0  0
  1 21  1  1  0  0  0
  1  2  1  0  0  0  0
  2  3  1  0  0  0  0
  3  7  1  6  0  0  0
  4  3  1  0  0  0  0
  4 16  1  1  0  0  0
  5 24  1  6  0  0  0
  5  4  1  0  0  0  0
  6  1  1  0  0  0  0
  6  5  1  0  0  0  0
  7  8  1  0  0  0  0
  8  9  2  0  0  0  0
  8 10  1  0  0  0  0
  9 12  1  0  0  0  0
 10 14  1  0  0  0  0
 11  7  1  0  0  0  0
 13  9  1  0  0  0  0
 15 10  1  0  0  0  0
 16 17  1  0  0  0  0
 16 20  1  0  0  0  0
 17 18  2  0  0  0  0
 19 17  1  0  0  0  0
 22 21  2  0  0  0  0
 23 21  1  0  0  0  0
 24 25  1  6  0  0  0
 25 26  1  0  0  0  0
 27 30  1  6  0  0  0
 27 28  1  0  0  0  0
 27 24  1  0  0  0  0
 28 29  1  0  0  0  0
 31 30  1  0  0  0  0
 32 31  1  0  0  0  0
M  END
>  <Pose>
6

>  <Score>
-6.147

$$$$
ZMR.pdb
 OpenBabel03252517563D

 32 32  0  0  1  0  0  0  0  0999 V2000
   33.5950   28.5060   29.2840 C   0  0  1  0  0  3  0  0  0  0  0  0
   34.8840   28.0440   28.7720 C   0  0  0  0  0  2  0  0  0  0  0  0
   35.1550   26.6070   28.9160 C   0  0  1  0  0  3  0  0  0  0  0  0
   34.0490   25.7920   29.5160 C   0  0  2  0  0  3  0  0  0  0  0  0
   33.5390   26.4250   30.8120 C   0  0  1  0  0  3  0  0  0  0  0  0
   33.1690   27.8780   30.5510 O   0  0  0  0  0  0  0  0  0  0  0  0
   35.4370   25.9910   27.5410 N   0  0  0  0  0  0  0  0  0  0  0  0
   36.6780   25.2990   27.2350 C   0  0  0  0  0  0  0  0  0  0  0  0
   36.8270   24.7940   26.0840 N   0  0  0  0  0  4  0  0  0  0  0  0
   37.5930   25.2260   28.1060 N   0  0  0  0  0  0  0  0  0  0  0  0
   34.7330   26.0690   26.8200 H   0  0  0  0  0  0  0  0  0  0  0  0
   37.6860   24.3160   25.8490 H   0  0  0  0  0  0  0  0  0  0  0  0
   36.0880   24.8690   25.3990 H   0  0  0  0  0  0  0  0  0  0  0  0
   38.4590   24.7520   27.8900 H   0  0  0  0  0  0  0  0  0  0  0  0
   37.4580   25.6420   29.0160 H   0  0  0  0  0  0  0  0  0  0  0  0
   34.5950   24.4470   29.8800 N   0  0  0  0  0  0  0  0  0  0  0  0
   34.1590   23.2480   29.1980 C   0  0  0  0  0  0  0  0  0  0  0  0
   34.6010   22.1700   29.4810 O   0  0  0  0  0  0  0  0  0  0  0  0
   33.1260   23.4160   28.1070 C   0  0  0  0  0  1  0  0  0  0  0  0
   35.2810   24.3750   30.6170 H   0  0  0  0  0  0  0  0  0  0  0  0
   33.5610   30.0260   29.5870 C   0  0  0  0  0  0  0  0  0  0  0  0
   33.9710   30.8750   28.7610 O   0  0  0  0  0  0  0  0  0  0  0  0
   33.0900   30.4210   30.6930 O   0  0  0  0  0  1  0  0  0  0  0  0
   32.3640   25.7610   31.3580 C   0  0  2  0  0  3  0  0  0  0  0  0
   31.1630   26.3390   30.8150 O   0  0  0  0  0  0  0  0  0  0  0  0
   31.3780   27.1590   30.3640 H   0  0  0  0  0  0  0  0  0  0  0  0
   32.4010   25.9980   32.8960 C   0  0  2  0  0  3  0  0  0  0  0  0
   32.3860   27.3720   33.1380 O   0  0  0  0  0  0  0  0  0  0  0  0
   31.7530   27.7930   32.5520 H   0  0  0  0  0  0  0  0  0  0  0  0
   33.6140   25.3470   33.5650 C   0  0  0  0  0  2  0  0  0  0  0  0
   33.3930   23.9650   33.7000 O   0  0  0  0  0  0  0  0  0  0  0  0
   33.8210   23.5000   32.9780 H   0  0  0  0  0  0  0  0  0  0  0  0
  1 21  1  1  0  0  0
  1  6  1  0  0  0  0
  2  3  1  0  0  0  0
  2  1  1  0  0  0  0
  3  7  1  6  0  0  0
  3  4  1  0  0  0  0
  4 16  1  1  0  0  0
  4  5  1  0  0  0  0
  5 24  1  6  0  0  0
  6  5  1  0  0  0  0
  8  7  1  0  0  0  0
  8 10  1  0  0  0  0
  9  8  2  0  0  0  0
 10 15  1  0  0  0  0
 11  7  1  0  0  0  0
 12  9  1  0  0  0  0
 13  9  1  0  0  0  0
 14 10  1  0  0  0  0
 16 20  1  0  0  0  0
 17 18  2  0  0  0  0
 17 16  1  0  0  0  0
 19 17  1  0  0  0  0
 21 23  1  0  0  0  0
 22 21  2  0  0  0  0
 24 25  1  6  0  0  0
 24 27  1  0  0  0  0
 26 25  1  0  0  0  0
 27 28  1  0  0  0  0
 27 30  1  6  0  0  0
 29 28  1  0  0  0  0
 30 31  1  0  0  0  0
 32 31  1  0  0  0  0
M  END
>  <Pose>
7

>  <Score>
-6.061

$$$$
ZMR.pdb
 OpenBabel03252517563D

 32 32  0  0  1  0  0  0  0  0999 V2000
   35.5180   24.1360   27.5550 C   0  0  1  0  0  3  0  0  0  0  0  0
   34.8070   24.2590   28.8270 C   0  0  0  0  0  2  0  0  0  0  0  0
   34.6210   25.6270   29.3300 C   0  0  1  0  0  3  0  0  0  0  0  0
   35.1320   26.7220   28.4450 C   0  0  2  0  0  3  0  0  0  0  0  0
   36.5730   26.4500   28.0070 C   0  0  1  0  0  3  0  0  0  0  0  0
   36.6580   25.0610   27.3900 O   0  0  0  0  0  0  0  0  0  0  0  0
   33.1260   25.9070   29.5310 N   0  0  0  0  0  0  0  0  0  0  0  0
   32.4900   25.8440   30.8360 C   0  0  0  0  0  0  0  0  0  0  0  0
   31.2560   26.1140   30.9260 N   0  0  0  0  0  4  0  0  0  0  0  0
   33.1620   25.5060   31.8530 N   0  0  0  0  0  0  0  0  0  0  0  0
   32.5640   26.1450   28.7260 H   0  0  0  0  0  0  0  0  0  0  0  0
   30.7930   26.0680   31.8230 H   0  0  0  0  0  0  0  0  0  0  0  0
   30.7340   26.3750   30.1010 H   0  0  0  0  0  0  0  0  0  0  0  0
   32.7160   25.4540   32.7580 H   0  0  0  0  0  0  0  0  0  0  0  0
   34.1440   25.2870   31.7590 H   0  0  0  0  0  0  0  0  0  0  0  0
   35.1550   27.9950   29.2310 N   0  0  0  0  0  0  0  0  0  0  0  0
   34.1960   29.0510   28.9830 C   0  0  0  0  0  0  0  0  0  0  0  0
   34.2060   30.0680   29.6170 O   0  0  0  0  0  0  0  0  0  0  0  0
   33.1770   28.8100   27.8920 C   0  0  0  0  0  1  0  0  0  0  0  0
   35.8530   28.1210   29.9490 H   0  0  0  0  0  0  0  0  0  0  0  0
   36.1360   22.7330   27.3270 C   0  0  0  0  0  0  0  0  0  0  0  0
   36.1380   22.1860   26.1980 O   0  0  0  0  0  0  0  0  0  0  0  0
   36.6700   22.1310   28.3030 O   0  0  0  0  0  1  0  0  0  0  0  0
   37.0700   27.4020   27.0240 C   0  0  2  0  0  3  0  0  0  0  0  0
   37.3440   28.6700   27.6480 O   0  0  0  0  0  0  0  0  0  0  0  0
   36.6120   28.9090   28.2220 H   0  0  0  0  0  0  0  0  0  0  0  0
   35.9360   27.5790   25.9720 C   0  0  2  0  0  3  0  0  0  0  0  0
   36.0400   26.5590   25.0260 O   0  0  0  0  0  0  0  0  0  0  0  0
   36.8710   26.6460   24.5520 H   0  0  0  0  0  0  0  0  0  0  0  0
   35.9690   28.9500   25.2930 C   0  0  0  0  0  2  0  0  0  0  0  0
   34.6710   29.3100   24.8940 O   0  0  0  0  0  0  0  0  0  0  0  0
   34.3550   30.0300   25.4440 H   0  0  0  0  0  0  0  0  0  0  0  0
  1 21  1  1  0  0  0
  1  2  1  0  0  0  0
  2  3  1  0  0  0  0
  3  7  1  6  0  0  0
  4 16  1  1  0  0  0
  4  3  1  0  0  0  0
  5 24  1  6  0  0  0
  5  4  1  0  0  0  0
  6  1  1  0  0  0  0
  6  5  1  0  0  0  0
  7  8  1  0  0  0  0
  8  9  2  0  0  0  0
  8 10  1  0  0  0  0
  9 12  1  0  0  0  0
 10 14  1  0  0  0  0
 11  7  1  0  0  0  0
 13  9  1  0  0  0  0
 15 10  1  0  0  0  0
 16 20  1  0  0  0  0
 17 16  1  0  0  0  0
 17 18  2  0  0  0  0
 19 17  1  0  0  0  0
 21 23  1  0  0  0  0
 22 21  2  0  0  0  0
 24 25  1  1  0  0  0
 25 26  1  0  0  0  0
 27 30  1  6  0  0  0
 27 24  1  0  0  0  0
 28 27  1  0  0  0  0
 29 28  1  0  0  0  0
 31 30  1  0  0  0  0
 31 32  1  0  0  0  0
M  END
>  <Pose>
8

>  <Score>
-6.039

$$$$
ZMR.pdb
 OpenBabel03252517563D

 32 32  0  0  1  0  0  0  0  0999 V2000
   35.5440   24.8720   27.3270 C   0  0  1  0  0  3  0  0  0  0  0  0
   35.8500   25.1070   28.7370 C   0  0  0  0  0  2  0  0  0  0  0  0
   35.3950   26.3920   29.2880 C   0  0  1  0  0  3  0  0  0  0  0  0
   34.6240   27.2670   28.3480 C   0  0  2  0  0  3  0  0  0  0  0  0
   35.3610   27.4290   27.0160 C   0  0  1  0  0  3  0  0  0  0  0  0
   35.6920   26.0540   26.4540 O   0  0  0  0  0  0  0  0  0  0  0  0
   34.4730   26.1440   30.4890 N   0  0  0  0  0  0  0  0  0  0  0  0
   34.7340   26.7090   31.8020 C   0  0  0  0  0  0  0  0  0  0  0  0
   33.9120   26.4810   32.7380 N   0  0  0  0  0  0  0  0  0  0  0  0
   35.7760   27.3990   31.9990 N   0  0  0  0  0  4  0  0  0  0  0  0
   33.6540   25.5670   30.3610 H   0  0  0  0  0  0  0  0  0  0  0  0
   34.0800   26.8580   33.6600 H   0  0  0  0  0  0  0  0  0  0  0  0
   33.0900   25.9210   32.5630 H   0  0  0  0  0  0  0  0  0  0  0  0
   35.9600   27.7850   32.9140 H   0  0  0  0  0  0  0  0  0  0  0  0
   36.4230   27.5640   31.2410 H   0  0  0  0  0  0  0  0  0  0  0  0
   34.5200   28.6330   28.9500 N   0  0  0  0  0  0  0  0  0  0  0  0
   33.2420   29.1860   29.3460 C   0  0  0  0  0  0  0  0  0  0  0  0
   33.1570   30.2760   29.8370 O   0  0  0  0  0  0  0  0  0  0  0  0
   32.0220   28.3250   29.1180 C   0  0  0  0  0  1  0  0  0  0  0  0
   35.3580   29.1800   29.0830 H   0  0  0  0  0  0  0  0  0  0  0  0
   36.4530   23.8020   26.6690 C   0  0  0  0  0  0  0  0  0  0  0  0
   36.7980   22.7620   27.2780 O   0  0  0  0  0  1  0  0  0  0  0  0
   36.8420   23.9750   25.4780 O   0  0  0  0  0  0  0  0  0  0  0  0
   34.5890   28.1440   26.0100 C   0  0  2  0  0  3  0  0  0  0  0  0
   33.8970   27.2160   25.1550 O   0  0  0  0  0  0  0  0  0  0  0  0
   34.4840   26.9320   24.4500 H   0  0  0  0  0  0  0  0  0  0  0  0
   35.6140   28.9570   25.1670 C   0  0  2  0  0  3  0  0  0  0  0  0
   36.1420   28.1240   24.1800 O   0  0  0  0  0  0  0  0  0  0  0  0
   36.8830   28.5620   23.7540 H   0  0  0  0  0  0  0  0  0  0  0  0
   36.7340   29.5590   26.0190 C   0  0  0  0  0  2  0  0  0  0  0  0
   36.1920   30.4950   26.9170 O   0  0  0  0  0  0  0  0  0  0  0  0
   36.3640   31.3830   26.5960 H   0  0  0  0  0  0  0  0  0  0  0  0
  1 21  1  6  0  0  0
  1  2  1  0  0  0  0
  2  3  1  0  0  0  0
  3  7  1  1  0  0  0
  4 16  1  1  0  0  0
  4  3  1  0  0  0  0
  5 24  1  6  0  0  0
  5  4  1  0  0  0  0
  6  5  1  0  0  0  0
  6  1  1  0  0  0  0
  7  8  1  0  0  0  0
  8 10  2  0  0  0  0
  8  9  1  0  0  0  0
  9 12  1  0  0  0  0
 10 14  1  0  0  0  0
 11  7  1  0  0  0  0
 13  9  1  0  0  0  0
 15 10  1  0  0  0  0
 16 20  1  0  0  0  0
 16 17  1  0  0  0  0
 17 18  2  0  0  0  0
 19 17  1  0  0  0  0
 21 22  1  0  0  0  0
 23 21  2  0  0  0  0
 24 25  1  6  0  0  0
 26 25  1  0  0  0  0
 27 24  1  0  0  0  0
 27 30  1  1  0  0  0
 28 27  1  0  0  0  0
 29 28  1  0  0  0  0
 30 31  1  0  0  0  0
 32 31  1  0  0  0  0
M  END
>  <Pose>
9

>  <Score>
-5.440

$$$$
